Circuit: * C:\Users\81803\Desktop\orcad-ir2011\Draft4.asc

.OP point found by inspection.

Date: Fri Feb 28 00:10:19 2020
Total elapsed time: 0.047 seconds.

tnom = 27
temp = 27
method = modified trap
totiter = 2254
traniter = 2254
tranpoints = 1128
accept = 1112
rejected = 16
matrix size = 7
fillins = 0
solver = Normal
Matrix Compiler1: 250 bytes object code size  0.1/0.1/[0.0]
Matrix Compiler2: 467 bytes object code size  0.0/0.1/[0.0]

