Circuit: * C:\Users\81803\Desktop\orcad-ir2011\Draft2.asc

.OP point found by inspection.

Date: Fri Feb 14 23:27:46 2020
Total elapsed time: 0.037 seconds.

tnom = 27
temp = 27
method = modified trap
totiter = 2198
traniter = 2198
tranpoints = 1100
accept = 1088
rejected = 12
matrix size = 8
fillins = 0
solver = Normal
Matrix Compiler1: 380 bytes object code size  0.1/0.1/[0.1]
Matrix Compiler2: 574 bytes object code size  0.1/0.1/[0.0]

