Circuit: * C:\Users\81803\Desktop\orcad-ir2011\Draft3.asc


Date: Tue Feb 11 01:29:51 2020
Total elapsed time: 0.047 seconds.

tnom = 27
temp = 27
method = trap
totiter = 0
traniter = 0
tranpoints = 0
accept = 0
rejected = 0
matrix size = 3
fillins = 0
solver = Normal

